
********************
BSIM4 MOS Transistor
********************

BSIM4 is version-4 of the BSIM model. It uses single-piece equations for all regions to improve the smoothness of the model
characteristics.

Model parameter "version" only accepts real number value, like 4.21 for version=4.2.1. The available versions are
4.00(4.0.0), 4.10(4.1.0), 4.20(4.2.0), 4.21(4.2.1), 4.30(4.3.0), 4.40(4.4.0), 4.50(4.5.0), 4.60(4.6.0), 4.61(4.6.1),
4.62(4.6.2), 4.63(4.6.3), 4.64(4.6.4), 4.65(4.6.5), 4.70(4.7.0), 4.80(4.8.0), 4.81(4.8.1) and 4.82(4.8.2).

BSIM4 also supports the binning option like the approach used in BSIM3. This option is provided for users who want to achieve
the highest accuracy of the model. The binning equation is given by 
 
      P = P0 + Pl / Leff + Pw / Weff + Pp / (Leff * Weff) 

Only the P0 parameters are listed. Pl, Pw, and Pw are not shown but can be recognized. The names of Pl, Pw, and Pp are
identical to that of P0 but with a prefix of l, w, and p, respectively. BSIM4 transistors require that you use a model
statement. 

For more information on this model, consult the University of California at Berkeley BSIM4 home page at 
http://www-device.eecs.berkeley.edu/~bsim3/bsim4.html 


Sample Instance Statement:
m4 (0 2 1 1) pchmod w=2u l=0.8u as=250p ad=250p pd=168p ps=168p m=1

Sample Model Statement:
model pchmod bsim4 type=p mobmod=0 capmod=2 version=4.21 toxe=3e-9 cdsc=2.58e-4 cdscb=0 cdscd=6.1e-8 cit=0 nfactor=1.1
xj=9e-8 vfb=0.76 vsat=9.2e4 at=3.3e4 a0=1.1 ags=1.0e-20 a1=0 ngate=9e19 vth0=-0.42 a2=1 delta=0.014 pvag=1e-20 pclm=6.28e-4
pdits=0.2 pditsl=2.3e6 pditsd=0.23 fprout=0.2 pdiblcb=3.4e-8 pdiblc1=0.81 drout=0.56 pdiblc2=9.84e-6 pscbe1=8.14e8
pscbe2=9.58e-07 lint=5e-9 wint=5e-9 dmcg=5e-6 dmci=5e-6 dmdg=5e-6 dmcgt=6e-7 dwj=4.5e-8 rsh=6 cgso=7.43e-10 cgdo=7.43e-10
cgbo=2.56e-11 cgsl=1e-14 cgdl=1e-14 ckappas=0.5 ckappad=0.5 noff=0.9 voffcv=0.02 acde=1 moin=15 xpart=0 kt1l=0 kt2=2.2e-2
lpe0=5.75e-8 lpeb=2.3e-10 dvt0=2.89 dvt1=0.53 dvt2=-3.2e-2 dvt0w=0 dvt1w=0 dvt2w=0 dvtp0=7.32e-7 dvtp1=0.12 dsub=0.058
eta0=0.001 u0=4.19e-2 ua=8.7e-16 ub=3.06e-18 k1=0.33 uc=4.6e-13 ute=-1.5 ua1=4.31e-9 ub1=7.61e-18 uc1=-5.6e-11 k2=-1.87e-2
rdsw=369.4 rdw=184.7 rsw=184.7 prwg=3.22e-8 prwb=6.8e-11 wr=1 rdswmin=0 rdwmin=0 rswmin=0 prt=0 b0=-1e-20 k3=80 k3b=0
w0=2.5e-6 b1=0 keta=-0.047 alpha0=7.4e-2 alpha1=0.005 beta0=30

In spice language mode, the model is selected through the level model parameter.
For example,
.model pchmod PMOS level=14 mobmod=0 capmod=2 version=4.21

This device is supported within altergroups.

Synopsis:
Name ( d g s b ) ModelName <parameter=value> ...

Model Synopsis:
model ModelName bsim4 <parameter=value> ...


===================
Instance Parameters
===================

1       w (m)             Channel width.
2       l (m)             Channel length.
3       as (m^2)          Area of source diffusion.
4       ad (m^2)          Area of drain diffusion.
5       ps (m)            Perimeter of source diffusion.
6       pd (m)            Perimeter of drain diffusion.
7       nrd               Number of squares of drain diffusion.
8       nrs               Number of squares of source diffusion.
9       rdc=0.0 Ohm       Drain contact resistance.
10      rsc=0.0 Ohm       Source contact resistance.
11      sa=0.0 m          Distance between OD edge to poly from one side.
12      sb=0.0 m          Distance between OD edge to poly from the other side.
13      sd=0.0 m          Distance between neighbor fingers.
14      sa1=0.0 m         Distance between OD edge to poly from one side 1.
15      sa2=0.0 m         Distance between OD edge to poly from one side 2.
16      sa3=0.0 m         Distance between OD edge to poly from one side 3.
17      sa4=0.0 m         Distance between OD edge to poly from one side 4.
18      sa5=0.0 m         Distance between OD edge to poly from one side 5.
19      sa6=0.0 m         Distance between OD edge to poly from one side 6.
20      sa7=0.0 m         Distance between OD edge to poly from one side 7.
21      sa8=0.0 m         Distance between OD edge to poly from one side 8.
22      sa9=0.0 m         Distance between OD edge to poly from one side 9.
23      sa10=0.0 m        Distance between OD edge to poly from one side 10.
24      sb1=0.0 m         Distance between OD edge to poly from other side 1.
25      sb2=0.0 m         Distance between OD edge to poly from other side 2.
26      sb3=0.0 m         Distance between OD edge to poly from other side 3.
27      sb4=0.0 m         Distance between OD edge to poly from other side 4.
28      sb5=0.0 m         Distance between OD edge to poly from other side 5.
29      sb6=0.0 m         Distance between OD edge to poly from other side 6.
30      sb7=0.0 m         Distance between OD edge to poly from other side 7.
31      sb8=0.0 m         Distance between OD edge to poly from other side 8.
32      sb9=0.0 m         Distance between OD edge to poly from other side 9.
33      sb10=0.0 m        Distance between OD edge to poly from other side 10.
34      sw1=0.0 m         Width of SA1/SB1.
35      sw2=0.0 m         Width of SA2/SB2.
36      sw3=0.0 m         Width of SA3/SB3.
37      sw4=0.0 m         Width of SA4/SB4.
38      sw5=0.0 m         Width of SA5/SB5.
39      sw6=0.0 m         Width of SA6/SB6.
40      sw7=0.0 m         Width of SA7/SB7.
41      sw8=0.0 m         Width of SA8/SB8.
42      sw9=0.0 m         Width of SA9/SB9.
43      sw10=0.0 m        Width of SA10/SB10.
44      isnoisy=yes       Should device generate noise. Possible values are no and yes.
45      m=1               Multiplicity factor (number of MOSFETs in parallel).
46      mult_i=1.0        Variability in current.
47      mult_q=1.0        Variability in charge.
48      mult_fn=Mult_i    Variability in flicker noise.
49      region=triode     Estimated operating region. Spectre outputs the number (0-4) in a rawfile. Possible values are off,
                          triode, sat, subth and breakdown.
50      trnqsmod          Transient NQS model selector.
51      acnqsmod          AC small-signal NQS model selector.
52      trise (C)         Temperature rise from ambient.
53      dtemp (C)         Alias for trise.
54      deltox=0 m        Shift in gate electrical/physical equivalent oxide thickness (for both TOXE and TOXP).
55      rgatemod          Gate resistance model selector.
56      rbodymod          Substrate resistance network model selector.
57      geomod            Geometry dependent parasitics model selector.
58      stimod            LOD stress effect model selector.
59      rgeomod           Diffusion resistance and contact model selector.
60      rbpb (Ohm)        Resistance connected between bNode' and bNode.
61      rbpd (Ohm)        Resistance connected between bNode' and dbNode.
62      rbps (Ohm)        Resistance connected between bNode' and sbNode.
63      rbdb (Ohm)        Resistance connected between dbNode and bNode.
64      rbsb (Ohm)        Resistance connected between sbNode and bNode.
65      nf                Number of device fingers.
66      min               Whether to minimize the number of drain or source diffusions for evennumber fingered device. Set to
                          0 to minimize.
67      delvto=0.0 V      Shift in zero-bias threshold voltage vth0.
68      mulmu0=1.0        Mobility multiplier, alias of mulu0.
69      mulvsat=1.0       Vsat multiplier.
70      mulu0=1.0         Mobility multiplier.
71      mulid0=1.0        Ids multiplier.
72      mulbeta=1.0       Beta multiplier.
73      delk1=0.0 sqrt(V)
                          Shift in body bias coefficient k1.
74      delnfct=0.0       Shift in subthreshold swing factor nfactor.
75      deleta0=0.0       Shift in DIBL coefficient subthreshold region.
76      sca=0.0           Integral of the first distribution function for scattered well dopant.
77      scb=0.0           Integral of the second distribution function for scattered well dopant.
78      scc=0.0           Integral of the third distribution function for scattered well dopant.
79      sc=0.0 m          Distance to a single well edge.
80      xgw=0.0 m         Distance from the gate contact to the channel edge.
81      ngcon=1.0         Number of gate contacts.


================
Model Parameters
================

Device type parameters:
1       type=n            Transistor type. Possible values are n and p.

Model Selectors & Controller:
2       level=14          Model level selector for spice compatibility.
3       version=4.21      Model parameter "version" only accepts real number value, like 4.21 for version=4.2.1. The
                          available versions are 4.00(4.0.0), 4.10(4.1.0), 4.20(4.2.0), 4.21(4.2.1), 4.30(4.3.0),
                          4.40(4.4.0), 4.50(4.5.0), 4.60(4.6.0), 4.61(4.6.1), 4.62(4.6.2), 4.63(4.6.3), 4.64(4.6.4),
                          4.65(4.6.5), 4.70(4.7.0), 4.80(4.8.0), 4.81(4.8.1) and 4.82(4.8.2).
4       binunit=1         Bin parameter unit selector. 1 for microns and 2 for meters.
5       paramchk=1        Switch for parameter value check. Set to 1 to turn on.
6       mobmod=0          Mobility model selector. The available mobmod is 0~6. mobmod=4~6 is only valid since version
                          4.8.0.
7       cvchargemod=0.0   Capacitance Charge model selector.
8       mtrlmod=0.0       parameter for non-silicon substrate or metal gate selector.
9       mtrlcompatmod=0   New material mod backward compatibility selector.
10      rdsmod=0          Bias-dependent source/drain resistance model selector.
11      igcmod=0          Gate-to-channel tunneling model selector.
12      igbmod=0          Gate-to-substrate tunneling model selector.
13      capmod=2          Capacitance model selector.
14      rgatemod=0        Gate resistance model selector.
15      rbodymod=0        Substrate resistance network model selector.
16      trnqsmod=0        Transient Non-quasi static model selector. Set to 1 to turn on nqs.
17      acnqsmod=0        Ac Non-quasi static model selector. Set to 1 to turn on nqs.
18      fnoimod=1         Flicker noise model selector.
19      tnoimod=0         Thermal noise model selector.
20      diomod=1          Source/Drain junction diode IV model selector.
21      tempmod=0         Temperature model selector. 0 for original model and 1 for new format.
22      permod=1          Perimeter model selector.
23      geomod=0          Geometry dependent parasitics model selector.
24      stimod=0          LOD stress effect model selector. 0 for Berkeley LOD, 1 & 2 for TSMC LOD.
25      wpemod=0          Flag for WPE model (WPEMOD=1 to activate this model).
26      rgeomod=0         Diffusion resistance and contact model selector. It served as the default value of instance
                          rgeomod.
27      flkmod=0          Flicker Noise Model.
28      fullreinit=0      Model parameter full reinit selector.
29      updatelevel=0     Model update selector. Available versions are 0, 1 and 2.
30      eglev=0           DC temperature selector.
31      minr=0.001 Ohm    Minimum source/drain resistance.

Process parameters:
32      epsrox=3.9        Gate dielectric constant.
33      epsrgate=11.7     Dielectric constant of gate relative to vacuum.
34      epsrsub=11.7      Dielectric constant of substrate relative to vacuum.
35      eot=1.5e-9 m      Equivalent gate oxide thickness in meters.
36      toxe=3.0e-9 m     Electrical gate equivalent oxide thickness.
37      toxp=`toxe' m     Physical gate equivalent oxide thickness.
38      toxm=`toxe' m     Toxe at which parameters were extracted.
39      dtox=0.0 m        Difference between electrical and physical gate oxide thickness.
40      xj=0.15e-6 m      Source/drain junction depth.
41      gamma1 (sqrt(V))  Body-effect coefficient near the surface.
42      gamma2 (sqrt(V))  Body-effect coefficient in the bulk.
43      ndep=1.7e17 cm^-3
                          Channel doping concentration at depletion edge for zero body bias.
44      nsub=6.0e16 cm^-3
                          Substrate doping concentration.
45      ngate=0.0 cm^-3   Poly Si gate doping concentration.
46      nsd=1.0e20 cm^-3  Source-drain doping concentration.
47      vbx (V)           Vbs at which the depletion region width equals XT.
48      xt=1.55e-7 m      Doping depth.
49      rsh=0.0 Ohm/sqr   Source/drain sheet resistance.
50      rshg=0.1 Ohm/sqr  Gate electrode sheet resistance.
51      lint=0.0 m        Lateral diffusion for one side.
52      wint=0.0 m        Width reduction for one side.
53      wl=0.0 m^wln      Length dependence of delta W.
54      wln=1.0           Length exponent of delta W.
55      ww=0.0 m^wwn      Width dependence of delta W.
56      wwn=1.0           Width exponent of delta W.
57      wwl=0.0 m^(wwn+wln)
                          Area dependence of delta W.
58      ll=0.0 m^lln      Length dependence of delta L.
59      lln=1.0           Length exponent of delta L.
60      lw=0.0 m^lwn      Width dependence of delta L.
61      lwn=1.0           Width exponent of delta L.
62      lwl=0.0 m^(lln+lwn)
                          Area dependence of delta L.
63      dwg=0.0 m/V       Gate-bias dependence of channel width.
64      dwb=0.0 m/sqrt(V)
                          Body-bias dependence of channel width.
65      lmlt=1.0          Length shrink reduction factor.
66      wmlt=1.0          Width shrink reduction factor.

Threshold voltage parameters:
67      vtho=0.7(nmos) / -0.7(pmos) V
                          Threshold voltage at Vbs=0 for long-channel devices. Alias of vth0.
68      vfb=-1.0 V        Flat-band voltage.
69      vddeot=1.5(nmos) / -1.5(pmos) V
                          Voltage for extraction of Equivalent gate oxide thickness.
70      phin=0.0 V        Non-uniform vertical doping effect on surface potential.
71      k1=0.53 sqrt(V)   First-order body bias coefficient.
72      k2=-0.0186        Second-order body bias coefficient.
73      k3=80.0           Narrow width coefficient.
74      k3b=0.0 1/V       Body effect coefficient of K3.
75      w0=2.5e-6 m       Narrow width coefficient.
76      lpe0=1.74e-7 m    Lateral non-uniform doping at Vbs=0.
77      lpeb=0.0 m        Lateral non-uniform doping effect on K1.
78      vbm=-3.0 V        Maximum applied body voltage in VTH0 calculation.
79      dvt0=2.2          First coefficient of short-channel effects.
80      dvt1=0.53         Second coefficient of short-channel effects.
81      dvt2=-0.032 1/V   Body-bias coefficient of short-channel effects.
82      dvtp0=0.0 m       First coefficient of drain-induced Vth shift for long-channel pocket devices.
83      dvtp1=0.0 1/V     Second coefficient of drain-induced Vth shift for long-channel pocket devices.
84      dvtp2=0.0         3rd parameter for Vth shift due to pocket.
85      dvtp3=0.0         4th parameter for Vth shift due to pocket.
86      dvtp4=0.0         5th parameter for Vth shift due to pocket.
87      dvtp5=0.0         6th parameter for Vth shift due to pocket.
88      dvt0w=0.0         First coefficient of narrow-width effects.
89      dvt1w=5.3e6 1/m   Second coefficient of narrow-width effects.
90      dvt2w=-0.032 1/V  Body-bias coefficient of narrow-width effects.
91      a0=1.0            Nonuniform depletion width effect coefficient.
92      ags=0.0 1/V       Gate-bias dependence of Abulk.
93      b0=0.0 m          Bulk charge coefficient due to narrow width effect.
94      b1=0.0 m          Bulk charge coefficient due to narrow width effect.
95      keta=-0.047 1/V   Body-bias coefficient for non-uniform depletion width effect.
96      ketac=-0.047 1/V  Body-bias coefficient for non-uniform depletion width effect in dynamic evaluation.
97      a1=0.0 1/V        First non-saturation effect parameter.
98      a2=1.0            Second non-saturation factor.
99      phig=4.05 eV      The gate work function.
100     ni0sub=1.45e10 cm^-3
                          Intrinsic carrier concentration at T=300.15K.
101     bg0sub=1.16 eV    Band-gap of substrate at T=0K.
102     tbgasub=7.02e-4 V/K
                          First parameter of band-gap change due to temperature.
103     tbgbsub=1108.0 K  Second parameter of bandgap change due to temperature.
104     ados=1.0          Charge centroid parameter.
105     bdos=1.0          Charge centroid parameter.
106     tempeot=300.15 C  Temperature for extraction of EOT.
107     leffeot=1 m       Effective length for extraction of EOT.
108     weffeot=10 m      Effective width for extraction of EOT.
109     vthmod            Vth output selector. 'std' outputs model equation Vth. 'vthcc' outputs constant current Vth, and
                          may impact simulation performance. The default value is taken from the options parameter 'vthmod'.
                          Possible values are std and vthcc.
110     ivth (A)          Vth current parameter. The default value is taken from the options parameter 'ivthn' or 'ivthp',
                          depending on the type of the model.
111     ivthw (m)         Width offset for constant current Vth. The default value is taken from the options parameter
                          'ivthw'.
112     ivthl (m)         Length offset for constant current Vth. The default value is taken from the options parameter
                          'ivthl'.
113     ivth_vdsmin (V)   Minimum Vds in constant current Vth calculating. The default value is taken from the options
                          parameter 'ivth_vdsmin'.
114     acm=12            area calculation method selector.
115     hdif=0 m          Length of heavily doped diffusion.
116     ldif=0 m          Lateral diffusion beyond the gate.
117     rs=12.5 Ohm       Source resistance.
118     rd=12.5 Ohm       Drain resistance.
119     ld (m)            Lateral diffusion into the channel from the source and drain diffusion.
120     trd=0 1/C         Temperature parameter for drain resistance.
121     trs=0 1/C         Temperature parameter for source resistance.

Mobility parameters:
122     u0=670(nmos) / 250(pmos)
                          Low-field surface mobility at tnom.
123     ua=1.0e-15 (mobmod=2/6) / 1.0e-9 (other mobmod) m/V
                          First-order mobility reduction coefficient.
124     ub=1.0e-19 m^2/V^2
                          Second-order mobility reduction coefficient.
125     uc=-0.0465 1/V (mobmod=1/5) / -0.0465e-9 m/V^2 (other mobmod)
                          Body-bias dependence of mobility.
126     ud=0.0/1.0e14(before version 4.6.0) /m^2
                          Coulomb scattering factor of mobility.
127     up=0.0            Channel length linear factor of mobility.
128     lp=1.0e-8 m       Channel length exponential factor of mobility.
129     eu=1.67(nmos) / 1.0(pmos)
                          Exponent for mobility degradation of mobmod=2/6.
130     vsat=8.0e4 m/s    Carrier saturation velocity at tnom.
131     lambda=0.0        Velocity overshoot coefficient.
132     vtl=2.0e5 m/s     Thermal velocity.
133     lc=5.0e-9 m       Velocity back scattering coefficient.
134     xn=3.0            Velocity back scattering coefficient.
135     easub=4.05 eV     Electron affinity of substrate.
136     ucs=1.67(nmos) / 1.0(pmos)
                          Coulomb scattering exponent.
137     ucste=-4.775e-3   Temperature coefficient of colombic mobility.

Subthreshold parameters:
138     voff=-0.08 V      Threshold voltage offset.
139     tvoff=0.0 V       Temperature parameter for voff.
140     ltvoff=0.0 V      Length dependence of tvoff.
141     wtvoff=0.0 V      Width dependence of tvoff.
142     ptvoff=0.0 V      Cross-term dependence of tvoff.
143     voffl=0.0 mV      Channel-length dependence of Voff.
144     minv=0.0          Vgsteff fitting parameter for moderate inversion condition.
145     nfactor=1.0       Subthreshold swing coefficient.
146     eta0=0.08         DIBL coefficient subthreshold region.
147     etab=-0.07 1/V    Body-bias dependence of et0.
148     dsub=`drout'      DIBL effect in subthreshold region.
149     cit=0.0 F/m^2     Interface trap parameter for subthreshold swing.
150     cdsc=2.4e-4 F/m^2
                          Source/drain and channel coupling capacitance.
151     cdscb=0.0 F/m^2*V
                          Body-bias dependence of cdsc.
152     cdscd=0.0 F/m^2*V
                          Drain-bias dependence of cdsc.

Output resistance parameters:
153     pclm=1.3          Channel length modulation coefficient.
154     pdiblc1=0.39      First coefficient of drain-induced barrier lowering.
155     pdiblc2=8.6e-3    Second coefficient of drain-induced barrier lowering.
156     pdiblcb=0.0 1/V   Body-effect coefficient for DIBL.
157     drout=0.56        DIBL effect on output resistance coefficient.
158     pscbe1=4.24e8 V/m
                          First coefficient of substrate current body effect.
159     pscbe2=1e-5 m/V   Second coefficient of substrate current body effect.
160     fprout=0.0 V/sqrt(m)
                          Effect of pocket implant on Rout degradation.
161     pvag=0.0          Gate dependence of Early voltage.
162     delta=0.01 V      Effective drain voltage smoothing parameter.
163     pdits=0.0 1/V     Effect of pocket implant on Rout degradation.
164     pditsl=0.0 1/m    Channel-length dependence of drain-induced Vth shift on Rout.
165     pditsd=0.0 1/V    Vds dependence of drain-induced Vth shift on Rout.

Bias-dependent Rds parameters:
166     rdsw=200.0 Ohm*um^wr
                          Zero bias LDD resistance per unit width for RDSMOD=0.
167     rdswmin=0.0 Ohm*um^wr
                          LDD resistance per unit width at high Vgs and zero Vbs for RDSMOD=0.
168     rdw=100.0 Ohm*um^wr
                          Zero bias LDD resistance per unit width for RDSMOD=1.
169     rdwmin=0.0 Ohm*um^wr
                          LDD resistance per unit width at high Vgs and zero Vbs for RDSMOD=1.
170     rsw=100.0 Ohm*um^wr
                          Zero bias LDD resistance per unit width for RDSMOD=1.
171     rswmin=0.0 Ohm*um^wr
                          LDD resistance per unit width at high Vgs and zero Vbs for RDSMOD=1.
172     prwg=1 1/V        Gate-effect coefficient for Rds.
173     prwb=0.0 1/sqrt(V)
                          Body-effect coefficient for Rds.
174     wr=1.0            Width offset for parasitic resistance.

Substrate current parameters:
175     alpha0=0.0 A*m/V  Substrate current impact ionization coefficient.
176     alpha1=0.0 A/V    Substrate current impact ionization coefficient.
177     beta0=30.0 1/V    Substrate current impact ionization exponent.

Gate-Induced drain leakage parameters:
178     gidlmod=0         Parameter for GIDL selector.
179     agidl=0.0 1/Ohm   Pre-exponential coefficient for GIDL.
180     bgidl=2.3e9 V/m   Exponential coefficient for GIDL.
181     cgidl=0.5 V^3     Parameter for body-bias effect on GIDL.
182     egidl=0.8 V       Fitting parameter for band bending for GIDL.
183     fgidl=0.0 V       GIDL vb parameter.
184     kgidl=0.0 V       GIDL vb parameter.
185     rgidl=1.0         GIDL vg parameter.
186     agisl=agidl 1/Ohm
                          Pre-exponential coefficient for GISL (bsim4.6).
187     bgisl=bgidl V/m   Exponential coefficient for GISL (bsim4.6).
188     cgisl=cgidl V^3   Parameter for body-bias effect on GISL (bsim4.6).
189     egisl=egidl V     Fitting parameter for band bending for GISL (bsim4.6).
190     fgisl=fgidl V     GISL vb parameter.
191     kgisl=kgidl V     GISL vb parameter.
192     rgisl=rgidl       GISL vg parameter.

Gate Tunneling parameters:
193     aigbacc=0.43 sqrt(F/g)*s/m
                          Parameter for Igb in accumulation.
194     bigbacc=0.054 sqrt(F/g)*s/(m*V)
                          Parameter for Igb in accumulation.
195     cigbacc=0.075 1/V
                          Parameter for Igb in accumulation.
196     nigbacc=1.0       Parameter for Igb in accumulation.
197     aigbinv=0.35 sqrt(F/g)*s/m
                          Parameter for Igb in inversion.
198     bigbinv=0.03 sqrt(F/g)*s/(m*V)
                          Parameter for Igb in inversion.
199     cigbinv=0.006 1/V
                          Parameter for Igb in inversion.
200     eigbinv=1.1 V     Parameter for Igb in inversion.
201     nigbinv=3.0       Parameter for Igb in inversion.
202     aigc=0.43(nmos) / 0.31(pmos) sqrt(F/g)*s/m
                          Parameter for Igcs and Igcd.
203     bigc=0.054(nmos) / 0.024(pmos) sqrt(F/g)*s/(m*V)
                          Parameter for Igcs and Igcd.
204     cigc=0.075(nmos) / 0.03(pmos) 1/V
                          Parameter for Igcs and Igcd.
205     aigsd=0.43(nmos) / 0.31(pmos) sqrt(F/g)*s/m
                          Parameter for Igs and Igd.
206     bigsd=0.054(nmos) / 0.024(pmos) sqrt(F/g)*s/(m*V)
                          Parameter for Igs and Igd.
207     cigsd=0.075(nmos) / 0.03(pmos) 1/V
                          Parameter for Igs and Igd.
208     aigs=1.36e-2(nmos) / 9.80e-3(pmos) sqrt(F/g)*s/m
                          Parameter for Igs (bsim4.6).
209     bigs=1.71e-3(nmos) / 7.59e-4(pmos) sqrt(F/g)*s/(m*V)
                          Parameter for Igs (bsim4.6).
210     cigs=0.075(nmos) / 0.03(pmos) 1/V
                          Parameter for Igs (bsim4.6).
211     aigd=1.36e-2(nmos) / 9.80e-3(pmos) sqrt(F/g)*s/m
                          Parameter for Igd (bsim4.6).
212     bigd=1.71e-3(nmos) / 7.59e-4(pmos) sqrt(F/g)*s/(m*V)
                          Parameter for Igd (bsim4.6).
213     cigd=0.075(nmos) / 0.03(pmos) 1/V
                          Parameter for Igd (bsim4.6).
214     dlcig=`Lint' m    Source overlap length for Igs.
215     dlcigd=dlcig m    drain overlap length for Igd (bsim4.6).
216     nigc=1.0          Parameter for Igcs, Igcd ,Igs and Igd.
217     poxedge=1.0       Factor for the gate oxide thickness in source/drain overlap regions.
218     pigcd=1.0         Vds dependence of Igcs and Igcd.
219     ntox=1.0          Exponent for the gate oxide ratio.
220     toxref=3.0e-9 m   Nominal gate oxide thickness for gate dielectric tunneling current model only.
221     vfbsdoff=0.0 V    S/D flatband voltage offset.
222     tvfbsdoff=0.0 V   Temperature parameter for vfbsdoff.
223     ltvfbsdoff=0.0 V  Length dependence of tvfbsdoff.
224     wtvfbsdoff=0.0 V  Width dependence of tvfbsdoff.
225     ptvfbsdoff=0.0 V  Cross-term dependence of tvfbsdoff.

Overlap capacitance parameters:
226     cgso (F/m)        Non LDD region source-gate overlap capacitance per unit channel width.
227     cgdo (F/m)        Non LDD region drain-gate overlap capacitance per unit channel width.
228     cgbo=2*Dwc*Coxe F/m
                          Non LDD region drain-gate overlap capacitance per unit channel width.
229     meto=0.0 m        Metal overlap in fringing field.
230     cgsl=0.0 F/m      Overlap capacitance between gate and lightly-doped source region.
231     cgdl=0.0 F/m      Overlap capacitance between gate and lightly-doped drain region.
232     ckappas=0.6 V     Coefficient of bias-dependent overlap capacitance for the source side.
233     ckappad=`ckappas' V
                          Coefficient of bias-dependent overlap capacitance for the source side.

Charge model selection parameters:
234     xpart=0.0         Charge partition number. Use 0.0 for 40/60, 0.5 for 50/50, and 1.0 for 0/100.
235     cf (F/m)          Fringing field capacitance (alias=lx91).
236     clc=1e-7 m        Constant term for the short channel model.
237     cle=0.6           Exponential term for the short channel model.
238     dlc=`lint' m      Delta L for capacitance model.
239     dwc=`wint' m      Delta W for capacitance model.
240     vfbcv=-1.0        Flat-band voltage for capmod=0.
241     noff=1.0          Transition parameter.
242     voffcv=0.0 V      CV parameter in VgsteffCV for weak to strong inversion.
243     minvcv=0.0        Fitting parameter for moderate inversion condition.
244     voffcvl=0.0 V*m   Length dependence parameter for Vth offset in CV.
245     acde=1.0 m/V      Exponential coefficient for charge thickness in CAPMOD=2 for accumulation and depletion regions.
246     moin=15.0         Exponential coefficient for charge thickness for accumulation and depletion regions.
247     llc=`ll' m^lln    Length dependence of delta L for CV.
248     lwc=`lw' m^lwn    Width dependence of delta L for CV.
249     lwlc=`lwl' m^(lln+lwn)
                          Area dependence of delta L for CV.
250     wlc=`wl' m^wln    Length dependence of delta W for CV.
251     wwc=`ww' m^wwn    Width dependence of delta W for CV.
252     wwlc=`wwl' m^(wwn+wln)
                          Area dependence of delta W for CV.

Parasitic resistance parameters:
253     dmcg=0.0 m        Distance from S/D contact center to the gate edge.
254     dmci=`dmcg' m     Distance from S/D contact center to the isolation edge in the channel-length direction.
255     dmdg=0.0 m        Distance from S/D contact center to the gate edge.
256     dmcgt=0.0 m       DMCG of test structures.
257     dwj=`dwc' m       Offset of the S/D junction width.
258     xgw=0.0 m         Distance from the gate contact to the channel edge.
259     xgl=0.0 m         Offset of gate length due to variations in patterning.
260     xl=0.0 m          Length variation due to masking and etching.
261     xw=0.0 m          Width variation due to masking and etching.
262     ngcon=1.0         Number of gate contacts.
263     nf=1              Number of device fingers. It served as the default value of instance nf.
264     min=0             Whether to minimize the number of drain or source diffusions for evennumber fingered device. Set to
                          0 to minimize. It served as the default value of instance min.

Junction diode model parameters:
265     ijthsrev=0.1 A    Source diode limiting current in reverse bias region.
266     ijthdrev=`ijthsrev' A